; Filename: Net6.inp
; WNTR: 0.4.1
; Created: 2022-04-10 13:13:07
[TITLE]
Network model used in Watson, J.P., Murray, R. and Hart, W.E., 2009.
Formulation and optimization of robust sensor placement problems for
drinking water contamination warning systems. Journal of
Infrastructure Systems, 15(4), pp.330-339.
UPDATE: Controls modified to avoid circular flow
The following lines were added:
Link LINK-1843 Open If Node TANK-3326 Above 29.5
Link LINK-1843 Closed If Node TANK-3326 Below 18
UPDATE: Pump curves 29 and 30 were converted to 3 point curves.
Commented out the following lines:
CURVE-29 280 0
CURVE-30 280 0
UPDATE: Combined tanks 3328 and 3329 to prevent stability problems.
These two tanks are identical and should always have the same level.
However, with timesteps that are large, explicit euler is unstable,
and the two tanks oscillate (triggered by roundoff error). Each
tank has a diameter of 120.6. When replacing the two with a single
tank, the diameter should be 170.55415562219525. Link-1834
was originally connected to TANK-3329.
UPDATE: Combined tanks 3338 and 3339 to prevent stability problems.
See above comment. Each tank has a diameter of 119.1. When replacing
the two with a single tank, the diameter should be 168.43283527863562.
LINK-3185 was originally connected to TANK-3339.

[JUNCTIONS]
;ID                      Elevation       Demand Pattern                 
 JUNCTION-0                        25               0 PATTERN-2                  ;
 JUNCTION-1                        31               0 PATTERN-2                  ;
 JUNCTION-2                        42               0 PATTERN-2                  ;
 JUNCTION-3                        33               0 PATTERN-2                  ;
 JUNCTION-4                        45               0 PATTERN-2                  ;
 JUNCTION-5                        55               0 PATTERN-2                  ;
 JUNCTION-8                        33            1.68 PATTERN-2                  ;
 JUNCTION-9                        35            4.76 PATTERN-2                  ;
 JUNCTION-10                       35               0 PATTERN-2                  ;
 JUNCTION-11                       35               0 PATTERN-2                  ;
 JUNCTION-13                       32            0.04 PATTERN-2                  ;
 JUNCTION-14                       50               0 PATTERN-2                  ;
 JUNCTION-19                       40               0 PATTERN-2                  ;
 JUNCTION-21                       27           28.76 PATTERN-2                  ;
 JUNCTION-22                       33            4.56 PATTERN-2                  ;
 JUNCTION-23                       23               0 PATTERN-2                  ;
 JUNCTION-24                       23           14.54 PATTERN-2                  ;
 JUNCTION-25                       30            2.54 PATTERN-2                  ;
 JUNCTION-26                       13               3 PATTERN-2                  ;
 JUNCTION-34                       30           13.66 PATTERN-2                  ;
 JUNCTION-35                       29               0 PATTERN-2                  ;
 JUNCTION-36                       30               0 PATTERN-2                  ;
 JUNCTION-44                       82            8.86 PATTERN-2                  ;
 JUNCTION-46                       70           12.72 PATTERN-2                  ;
 JUNCTION-50                       20          350.28 PATTERN-2                  ;
 JUNCTION-55                       15               0 PATTERN-2                  ;
 JUNCTION-56                       18               0 PATTERN-2                  ;
 JUNCTION-67                       60               0 PATTERN-2                  ;
 JUNCTION-89                       21               0 PATTERN-2                  ;
 JUNCTION-90                       21               0 PATTERN-2                  ;
 JUNCTION-91                       21            9.72 PATTERN-2                  ;
 JUNCTION-92                       16               0 PATTERN-2                  ;
 JUNCTION-93                       18           19.38 PATTERN-2                  ;
 JUNCTION-94                       18               0 PATTERN-2                  ;
 JUNCTION-99                       30               0 PATTERN-2                  ;
 JUNCTION-102                      17               0 PATTERN-2                  ;
 JUNCTION-106                      18               0 PATTERN-2                  ;
 JUNCTION-107                      18               0 PATTERN-2                  ;
 JUNCTION-108                      30               0 PATTERN-2                  ;
 JUNCTION-114                      39               0 PATTERN-2                  ;
 JUNCTION-115                      30            60.2 PATTERN-2                  ;
 JUNCTION-117                      20               0 PATTERN-2                  ;
 JUNCTION-118                      39               0 PATTERN-2                  ;
 JUNCTION-123                      58             9.7 PATTERN-2                  ;
 JUNCTION-156                      61               0 PATTERN-2                  ;
 JUNCTION-162                      59               0 PATTERN-2                  ;
 JUNCTION-164                      56           22.92 PATTERN-2                  ;
 JUNCTION-165                      57               0 PATTERN-2                  ;
 JUNCTION-166                      58               0 PATTERN-2                  ;
 JUNCTION-180                      61           57.66 PATTERN-2                  ;
 JUNCTION-181                      75              32 PATTERN-2                  ;
 JUNCTION-186                      75               0 PATTERN-2                  ;
 JUNCTION-190                      77               0 PATTERN-2                  ;
 JUNCTION-193                      76           19.46 PATTERN-2                  ;
 JUNCTION-194                      76               0 PATTERN-2                  ;
 JUNCTION-195                      60               0 PATTERN-2                  ;
 JUNCTION-198                      41               0 PATTERN-2                  ;
 JUNCTION-199                      39               0 PATTERN-2                  ;
 JUNCTION-201                      26             4.4 PATTERN-2                  ;
 JUNCTION-202                      20            0.34 PATTERN-2                  ;
 JUNCTION-203                      31               0 PATTERN-2                  ;
 JUNCTION-205                      28               0 PATTERN-2                  ;
 JUNCTION-206                      26            8.54 PATTERN-2                  ;
 JUNCTION-214                      29           18.92 PATTERN-2                  ;
 JUNCTION-215                      30            3.96 PATTERN-2                  ;
 JUNCTION-216                      26           17.32 PATTERN-2                  ;
 JUNCTION-217                      33               0 PATTERN-2                  ;
 JUNCTION-219                      33               0 PATTERN-2                  ;
 JUNCTION-220                      50               0 PATTERN-2                  ;
 JUNCTION-237                      72           51.62 PATTERN-2                  ;
 JUNCTION-240                     105               0 PATTERN-2                  ;
 JUNCTION-248                      78            14.9 PATTERN-2                  ;
 JUNCTION-251                      95               0 PATTERN-2                  ;
 JUNCTION-254                      95               0 PATTERN-2                  ;
 JUNCTION-255                      90              10 PATTERN-2                  ;
 JUNCTION-256                      95               0 PATTERN-2                  ;
 JUNCTION-258                      95               0 PATTERN-2                  ;
 JUNCTION-260                      98               0 PATTERN-2                  ;
 JUNCTION-261                      81           81.04 PATTERN-2                  ;
 JUNCTION-262                      75           29.58 PATTERN-2                  ;
 JUNCTION-265                      64            13.2 PATTERN-2                  ;
 JUNCTION-267                      68               0 PATTERN-2                  ;
 JUNCTION-268                      60           11.32 PATTERN-2                  ;
 JUNCTION-269                      56               0 PATTERN-2                  ;
 JUNCTION-273                      62            17.3 PATTERN-2                  ;
 JUNCTION-274                      65               0 PATTERN-2                  ;
 JUNCTION-277                      65           25.04 PATTERN-2                  ;
 JUNCTION-278                      68               0 PATTERN-2                  ;
 JUNCTION-279                      63           56.18 PATTERN-2                  ;
 JUNCTION-281                      64               0 PATTERN-2                  ;
 JUNCTION-282                      65               0 PATTERN-2                  ;
 JUNCTION-283                      69               0 PATTERN-2                  ;
 JUNCTION-284                      68           76.06 PATTERN-2                  ;
 JUNCTION-285                      73               0 PATTERN-2                  ;
 JUNCTION-286                      72               0 PATTERN-2                  ;
 JUNCTION-288                      74            49.6 PATTERN-2                  ;
 JUNCTION-289                      61               0 PATTERN-2                  ;
 JUNCTION-290                      40               0 PATTERN-2                  ;
 JUNCTION-291                      39           27.04 PATTERN-2                  ;
 JUNCTION-292                      35           38.14 PATTERN-2                  ;
 JUNCTION-293                      35               0 PATTERN-2                  ;
 JUNCTION-294                      30               0 PATTERN-2                  ;
 JUNCTION-295                      66           19.58 PATTERN-2                  ;
 JUNCTION-300                      60               0 PATTERN-2                  ;
 JUNCTION-303                      30            17.8 PATTERN-2                  ;
 JUNCTION-308                      35           68.98 PATTERN-2                  ;
 JUNCTION-309                      45               0 PATTERN-2                  ;
 JUNCTION-317                      88               0 PATTERN-2                  ;
 JUNCTION-319                      84           30.24 PATTERN-2                  ;
 JUNCTION-320                      83               0 PATTERN-2                  ;
 JUNCTION-322                      75               0 PATTERN-2                  ;
 JUNCTION-323                     101               0 PATTERN-2                  ;
 JUNCTION-324                     100           24.66 PATTERN-2                  ;
 JUNCTION-326                      99               0 PATTERN-2                  ;
 JUNCTION-327                     100               0 PATTERN-2                  ;
 JUNCTION-330                      97               0 PATTERN-2                  ;
 JUNCTION-335                      68            87.9 PATTERN-2                  ;
 JUNCTION-336                      72               0 PATTERN-2                  ;
 JUNCTION-337                      75           10.54 PATTERN-2                  ;
 JUNCTION-338                      67               0 PATTERN-2                  ;
 JUNCTION-339                      71               0 PATTERN-2                  ;
 JUNCTION-342                      40           96.16 PATTERN-2                  ;
 JUNCTION-344                      35            90.4 PATTERN-2                  ;
 JUNCTION-347                      30               0 PATTERN-2                  ;
 JUNCTION-348                      29               0 PATTERN-2                  ;
 JUNCTION-352                      32           54.92 PATTERN-2                  ;
 JUNCTION-353                      32               0 PATTERN-2                  ;
 JUNCTION-354                      30               0 PATTERN-2                  ;
 JUNCTION-356                      30               0 PATTERN-2                  ;
 JUNCTION-358                      30            80.6 PATTERN-2                  ;
 JUNCTION-359                      31               0 PATTERN-2                  ;
 JUNCTION-361                      25           40.12 PATTERN-2                  ;
 JUNCTION-362                      25               0 PATTERN-2                  ;
 JUNCTION-373                      34               0 PATTERN-2                  ;
 JUNCTION-381                      32               0 PATTERN-2                  ;
 JUNCTION-382                      32               0 PATTERN-2                  ;
 JUNCTION-383                      33               0 PATTERN-2                  ;
 JUNCTION-384                      32               0 PATTERN-2                  ;
 JUNCTION-387                      33               0 PATTERN-2                  ;
 JUNCTION-388                      33               0 PATTERN-2                  ;
 JUNCTION-389                      33               0 PATTERN-2                  ;
 JUNCTION-391                      34               0 PATTERN-2                  ;
 JUNCTION-392                      34            7.58 PATTERN-2                  ;
 JUNCTION-394                      34               0 PATTERN-2                  ;
 JUNCTION-396                      34               0 PATTERN-2                  ;
 JUNCTION-399                      35               0 PATTERN-2                  ;
 JUNCTION-403                      36           60.74 PATTERN-2                  ;
 JUNCTION-404                      40             6.4 PATTERN-2                  ;
 JUNCTION-406                      42               0 PATTERN-2                  ;
 JUNCTION-414                      43           37.44 PATTERN-2                  ;
 JUNCTION-415                      43               0 PATTERN-2                  ;
 JUNCTION-417                      46           49.34 PATTERN-2                  ;
 JUNCTION-418                      58            84.6 PATTERN-2                  ;
 JUNCTION-420                      44           19.34 PATTERN-2                  ;
 JUNCTION-423                      43               0 PATTERN-2                  ;
 JUNCTION-424                      44            20.3 PATTERN-2                  ;
 JUNCTION-428                      58               0 PATTERN-2                  ;
 JUNCTION-430                      60           25.18 PATTERN-2                  ;
 JUNCTION-432                      60           54.02 PATTERN-2                  ;
 JUNCTION-434                      60               0 PATTERN-2                  ;
 JUNCTION-435                      95               0 PATTERN-2                  ;
 JUNCTION-436                     101               0 PATTERN-2                  ;
 JUNCTION-437                     105               0 PATTERN-2                  ;
 JUNCTION-438                     140               0 PATTERN-2                  ;
 JUNCTION-439                     193               0 PATTERN-2                  ;
 JUNCTION-440                     105               0 PATTERN-2                  ;
 JUNCTION-441                      60               0 PATTERN-2                  ;
 JUNCTION-444                      52               0 PATTERN-2                  ;
 JUNCTION-447                      60               0 PATTERN-2                  ;
 JUNCTION-449                     193               0 PATTERN-2                  ;
 JUNCTION-450                      59               0 PATTERN-2                  ;
 JUNCTION-453                      45           46.68 PATTERN-2                  ;
 JUNCTION-456                      45               0 PATTERN-2                  ;
 JUNCTION-457                      45               0 PATTERN-2                  ;
 JUNCTION-458                      43           62.44 PATTERN-2                  ;
 JUNCTION-462                      48           39.42 PATTERN-2                  ;
 JUNCTION-464                      45            3.14 PATTERN-2                  ;
 JUNCTION-467                      50               0 PATTERN-2                  ;
 JUNCTION-468                      52           110.8 PATTERN-2                  ;
 JUNCTION-469                      50               0 PATTERN-2                  ;
 JUNCTION-471                      51           16.32 PATTERN-2                  ;
 JUNCTION-473                      55           33.92 PATTERN-2                  ;
 JUNCTION-474                      56               0 PATTERN-2                  ;
 JUNCTION-476                      63               0 PATTERN-2                  ;
 JUNCTION-477                      62               0 PATTERN-2                  ;
 JUNCTION-486                      65               0 PATTERN-2                  ;
 JUNCTION-490                      55            18.2 PATTERN-2                  ;
 JUNCTION-499                      55               0 PATTERN-2                  ;
 JUNCTION-500                      52               0 PATTERN-2                  ;
 JUNCTION-504                      48               0 PATTERN-2                  ;
 JUNCTION-505                      47              39 PATTERN-2                  ;
 JUNCTION-509                      43            62.2 PATTERN-2                  ;
 JUNCTION-512                      54               0 PATTERN-2                  ;
 JUNCTION-530                      68               0 PATTERN-2                  ;
 JUNCTION-531                      67           16.18 PATTERN-2                  ;
 JUNCTION-538                      74           44.06 PATTERN-2                  ;
 JUNCTION-539                      71               0 PATTERN-2                  ;
 JUNCTION-544                      78               0 PATTERN-2                  ;
 JUNCTION-549                      82           22.26 PATTERN-2                  ;
 JUNCTION-550                      86               0 PATTERN-2                  ;
 JUNCTION-551                      82               0 PATTERN-2                  ;
 JUNCTION-552                      85               0 PATTERN-2                  ;
 JUNCTION-553                      86               0 PATTERN-2                  ;
 JUNCTION-555                      85           45.38 PATTERN-2                  ;
 JUNCTION-560                      81           76.24 PATTERN-2                  ;
 JUNCTION-561                      85            37.1 PATTERN-2                  ;
 JUNCTION-562                      92           16.98 PATTERN-2                  ;
 JUNCTION-565                      91            15.3 PATTERN-2                  ;
 JUNCTION-568                      96           20.58 PATTERN-2                  ;
 JUNCTION-571                      94           19.66 PATTERN-2                  ;
 JUNCTION-578                      72               0 PATTERN-2                  ;
 JUNCTION-584                      90               0 PATTERN-2                  ;
 JUNCTION-585                      83           21.88 PATTERN-2                  ;
 JUNCTION-586                      83            7.66 PATTERN-2                  ;
 JUNCTION-594                      71           19.82 PATTERN-2                  ;
 JUNCTION-617                      78               0 PATTERN-2                  ;
 JUNCTION-621                      77             9.9 PATTERN-2                  ;
 JUNCTION-630                      84            0.08 PATTERN-2                  ;
 JUNCTION-632                      90            21.3 PATTERN-2                  ;
 JUNCTION-633                      98           28.24 PATTERN-2                  ;
 JUNCTION-634                      98            5.48 PATTERN-2                  ;
 JUNCTION-643                      83               0 PATTERN-2                  ;
 JUNCTION-650                      77           16.68 PATTERN-2                  ;
 JUNCTION-652                      82           16.56 PATTERN-2                  ;
 JUNCTION-653                      84            24.2 PATTERN-2                  ;
 JUNCTION-655                      79           29.54 PATTERN-2                  ;
 JUNCTION-656                      78           10.86 PATTERN-2                  ;
 JUNCTION-658                      79            30.4 PATTERN-2                  ;
 JUNCTION-660                      84               0 PATTERN-2                  ;
 JUNCTION-667                      97               0 PATTERN-2                  ;
 JUNCTION-668                      97               0 PATTERN-2                  ;
 JUNCTION-669                      97           18.62 PATTERN-2                  ;
 JUNCTION-672                      75           33.94 PATTERN-2                  ;
 JUNCTION-675                      84            5.52 PATTERN-2                  ;
 JUNCTION-676                      81           79.08 PATTERN-2                  ;
 JUNCTION-677                      85               0 PATTERN-2                  ;
 JUNCTION-678                      85               0 PATTERN-2                  ;
 JUNCTION-681                      84           35.38 PATTERN-2                  ;
 JUNCTION-685                      83           26.74 PATTERN-2                  ;
 JUNCTION-686                      75           24.78 PATTERN-2                  ;
 JUNCTION-687                      75            7.56 PATTERN-2                  ;
 JUNCTION-689                      72               0 PATTERN-2                  ;
 JUNCTION-705                      74               0 PATTERN-2                  ;
 JUNCTION-709                      68           13.34 PATTERN-2                  ;
 JUNCTION-714                      64           31.98 PATTERN-2                  ;
 JUNCTION-715                      65               0 PATTERN-2                  ;
 JUNCTION-719                      86               0 PATTERN-2                  ;
 JUNCTION-721                      86               0 PATTERN-2                  ;
 JUNCTION-722                     122               0 PATTERN-2                  ;
 JUNCTION-723                     118               0 PATTERN-2                  ;
 JUNCTION-724                     180               0 PATTERN-2                  ;
 JUNCTION-725                     180               0 PATTERN-2                  ;
 JUNCTION-726                     100               0 PATTERN-2                  ;
 JUNCTION-728                      88           30.82 PATTERN-2                  ;
 JUNCTION-730                      91           28.32 PATTERN-2                  ;
 JUNCTION-733                      97            29.9 PATTERN-2                  ;
 JUNCTION-735                      86               0 PATTERN-2                  ;
 JUNCTION-736                      88           30.62 PATTERN-2                  ;
 JUNCTION-737                      86               0 PATTERN-2                  ;
 JUNCTION-738                      92               0 PATTERN-2                  ;
 JUNCTION-739                      93           59.42 PATTERN-2                  ;
 JUNCTION-741                      95               0 PATTERN-2                  ;
 JUNCTION-742                      95           18.34 PATTERN-2                  ;
 JUNCTION-743                      91           27.88 PATTERN-2                  ;
 JUNCTION-744                      91               0 PATTERN-2                  ;
 JUNCTION-746                      98               0 PATTERN-2                  ;
 JUNCTION-747                     120               0 PATTERN-2                  ;
 JUNCTION-748                      89           43.38 PATTERN-2                  ;
 JUNCTION-751                      93            26.7 PATTERN-2                  ;
 JUNCTION-752                     105               0 PATTERN-2                  ;
 JUNCTION-753                      67               0 PATTERN-2                  ;
 JUNCTION-754                      67               0 PATTERN-2                  ;
 JUNCTION-755                      95               0 PATTERN-2                  ;
 JUNCTION-756                      93               0 PATTERN-2                  ;
 JUNCTION-757                      93               0 PATTERN-2                  ;
 JUNCTION-759                      92           24.66 PATTERN-2                  ;
 JUNCTION-761                      89               0 PATTERN-2                  ;
 JUNCTION-763                      85           14.02 PATTERN-2                  ;
 JUNCTION-787                      87               0 PATTERN-2                  ;
 JUNCTION-788                      88               0 PATTERN-2                  ;
 JUNCTION-789                      88               0 PATTERN-2                  ;
 JUNCTION-794                      90               0 PATTERN-2                  ;
 JUNCTION-795                      87               0 PATTERN-2                  ;
 JUNCTION-796                      84               0 PATTERN-2                  ;
 JUNCTION-798                      82            7.04 PATTERN-2                  ;
 JUNCTION-799                      90               0 PATTERN-2                  ;
 JUNCTION-800                      95               0 PATTERN-2                  ;
 JUNCTION-801                     105           35.62 PATTERN-2                  ;
 JUNCTION-802                     100               0 PATTERN-2                  ;
 JUNCTION-803                      95               0 PATTERN-2                  ;
 JUNCTION-804                      97               0 PATTERN-2                  ;
 JUNCTION-808                      33               0 PATTERN-2                  ;
 JUNCTION-809                      32               0 PATTERN-2                  ;
 JUNCTION-810                      32           17.48 PATTERN-2                  ;
 JUNCTION-811                      33               0 PATTERN-2                  ;
 JUNCTION-813                      33               0 PATTERN-2                  ;
 JUNCTION-814                      35               0 PATTERN-2                  ;
 JUNCTION-815                      34            7.48 PATTERN-2                  ;
 JUNCTION-817                      34           66.76 PATTERN-2                  ;
 JUNCTION-821                      35               0 PATTERN-2                  ;
 JUNCTION-823                      35           26.42 PATTERN-2                  ;
 JUNCTION-824                      35               0 PATTERN-2                  ;
 JUNCTION-831                      35               0 PATTERN-2                  ;
 JUNCTION-832                      31            73.5 PATTERN-2                  ;
 JUNCTION-837                      27               0 PATTERN-2                  ;
 JUNCTION-838                      50               0 PATTERN-2                  ;
 JUNCTION-839                      50               0 PATTERN-2                  ;
 JUNCTION-840                      50               0 PATTERN-2                  ;
 JUNCTION-845                      48           15.62 PATTERN-2                  ;
 JUNCTION-851                      45               0 PATTERN-2                  ;
 JUNCTION-854                      44           14.44 PATTERN-2                  ;
 JUNCTION-857                      40               0 PATTERN-2                  ;
 JUNCTION-859                      40           16.58 PATTERN-2                  ;
 JUNCTION-860                      40            33.7 PATTERN-2                  ;
 JUNCTION-864                      40               0 PATTERN-2                  ;
 JUNCTION-865                      40               0 PATTERN-2                  ;
 JUNCTION-867                      35           66.46 PATTERN-2                  ;
 JUNCTION-870                      31               0 PATTERN-2                  ;
 JUNCTION-871                      29           65.56 PATTERN-2                  ;
 JUNCTION-874                      60           34.88 PATTERN-2                  ;
 JUNCTION-888                      39           94.26 PATTERN-2                  ;
 JUNCTION-889                      42           99.64 PATTERN-2                  ;
 JUNCTION-891                      39               0 PATTERN-2                  ;
 JUNCTION-897                      35           44.42 PATTERN-2                  ;
 JUNCTION-898                      40            9.82 PATTERN-2                  ;
 JUNCTION-901                      92           14.58 PATTERN-2                  ;
 JUNCTION-902                      70               0 PATTERN-2                  ;
 JUNCTION-903                      75               0 PATTERN-2                  ;
 JUNCTION-904                      80               0 PATTERN-2                  ;
 JUNCTION-906                     120               0 PATTERN-2                  ;
 JUNCTION-907                     125               0 PATTERN-2                  ;
 JUNCTION-928                      50           27.78 PATTERN-2                  ;
 JUNCTION-929                      50           14.58 PATTERN-2                  ;
 JUNCTION-930                      62           19.74 PATTERN-2                  ;
 JUNCTION-931                      60               0 PATTERN-2                  ;
 JUNCTION-932                      78               0 PATTERN-2                  ;
 JUNCTION-933                     160               0 PATTERN-2                  ;
 JUNCTION-934                      80               0 PATTERN-2                  ;
 JUNCTION-935                     160               0 PATTERN-2                  ;
 JUNCTION-941                      43               0 PATTERN-2                  ;
 JUNCTION-942                      42           51.28 PATTERN-2                  ;
 JUNCTION-943                      40               0 PATTERN-2                  ;
 JUNCTION-944                      40           35.22 PATTERN-2                  ;
 JUNCTION-945                      41           18.76 PATTERN-2                  ;